Version 4
SHEET 1 880 680
WIRE 192 -304 -48 -304
WIRE -48 -240 -48 -304
WIRE -48 -240 -64 -240
WIRE -32 -240 -48 -240
WIRE -144 -208 -144 -240
WIRE 48 -208 48 -240
WIRE -592 -192 -624 -192
WIRE -320 -192 -320 -208
WIRE -320 -192 -368 -192
WIRE -256 -192 -320 -192
WIRE -480 -128 -592 -128
WIRE -320 -128 -368 -128
WIRE -320 -112 -320 -128
WIRE -256 -112 -320 -112
WIRE -144 -112 -144 -144
WIRE -144 -112 -256 -112
WIRE 48 -112 48 -144
WIRE 48 -112 -144 -112
WIRE -592 -64 -720 -64
WIRE -480 -64 -480 -128
WIRE -368 -64 -480 -64
WIRE -160 -64 -368 -64
WIRE 192 -64 192 -304
WIRE 192 -64 -160 -64
WIRE -592 0 -608 0
WIRE -336 0 -368 0
WIRE 432 32 432 0
WIRE 432 128 432 112
WIRE -720 208 -720 -64
WIRE 192 208 -720 208
WIRE 384 208 272 208
FLAG 432 224 0
FLAG -624 -192 0
FLAG -336 64 0
FLAG -1120 272 0
FLAG -1120 192 12V
FLAG -608 0 12V
FLAG -320 -208 12V
FLAG -160 0 0
FLAG 432 0 12V
SYMBOL nmos 384 128 R0
SYMATTR InstName M1
SYMATTR Value Si4800DY
SYMBOL res 416 16 R0
SYMATTR InstName R3
SYMATTR Value 8
SYMBOL Misc\\NE555 -480 -96 R0
SYMATTR InstName U1
SYMBOL cap -352 0 R0
SYMATTR InstName C1
SYMATTR Value 100n
SYMBOL voltage -1120 176 R0
WINDOW 0 24 96 Left 2
WINDOW 3 24 16 Left 2
WINDOW 123 0 0 Left 0
WINDOW 39 0 0 Left 0
SYMATTR InstName V1
SYMATTR Value 12
SYMBOL res -272 -208 R0
SYMATTR InstName R1
SYMATTR Value 10k
SYMBOL res -48 -256 R90
WINDOW 0 0 56 VBottom 2
WINDOW 3 32 56 VTop 2
SYMATTR InstName PotX
SYMATTR Value 10k
SYMBOL res 64 -256 R90
WINDOW 0 0 56 VBottom 2
WINDOW 3 32 56 VTop 2
SYMATTR InstName PotY
SYMATTR Value 990k
SYMBOL diode 32 -208 R0
WINDOW 3 18 60 Left 2
SYMATTR Value 1N4148
SYMATTR InstName D1
SYMBOL diode -128 -144 R180
WINDOW 0 24 64 Left 2
WINDOW 3 -79 9 Left 2
SYMATTR InstName D2
SYMATTR Value 1N4148
SYMBOL cap -176 -64 R0
SYMATTR InstName C2
SYMATTR Value 200p
SYMBOL res 288 192 R90
WINDOW 0 0 56 VBottom 2
WINDOW 3 32 56 VTop 2
SYMATTR InstName R2
SYMATTR Value 1k
TEXT -720 296 Left 2 !.tran 1
